13
pbc=[T, T, F] Lattice="5.72756493 0.00000000 0.00000000 0.00000000 5.72756493 0.00000000 0.00000000 0.00000000 13.75000000" Properties=species:S:1:pos:R:3
Al         0.00000000       0.00000000       4.00000000
Al         2.86378246       0.00000000       4.00000000
Al         0.00000000       2.86378246       4.00000000
Al         2.86378246       2.86378246       4.00000000
Al         1.43189123       1.43189123       6.02500000
Al         4.29567370       1.43189123       6.02500000
Al         1.43189123       4.29567370       6.02500000
Al         4.29567370       4.29567370       6.02500000
Al         0.00000000       0.00000000       8.05000000
Al         2.86378246       0.00000000       8.05000000
Al         0.00000000       2.86378246       8.05000000
Al         2.86378246       2.86378246       8.05000000
Au         1.43189123       1.43189123       9.75000000
